*SPEF "IEEE 1481-1999"
*DESIGN "diffeq1"
*DATE "Wed Aug  9 17:39:04 2017"
*VENDOR "SYNOPSYS INC"
*PROGRAM "Synopsys Design Compiler"
*VERSION "M-2016.12"
*DESIGN_FLOW "SYNTHESIS"
*DIVIDER /
*DELIMITER :
*BUS_DELIMITER []
*T_UNIT 1.0 NS
*C_UNIT 0.0010 PF
*R_UNIT 1000.0 KOHM
*L_UNIT 1.0 HENRY

*PORTS

Xinport\[31\] I *L 0.000e+00 *S 2.459e-04 2.544e-04 *D INVX1 
Xinport\[30\] I *L 0.000e+00 *S 2.459e-04 2.544e-04 *D INVX1 
Xinport\[29\] I *L 0.000e+00 *S 2.459e-04 2.544e-04 *D INVX1 
Xinport\[28\] I *L 0.000e+00 *S 2.459e-04 2.544e-04 *D INVX1 
Xinport\[27\] I *L 0.000e+00 *S 2.459e-04 2.544e-04 *D INVX1 
Xinport\[26\] I *L 0.000e+00 *S 2.459e-04 2.544e-04 *D INVX1 
Xinport\[25\] I *L 0.000e+00 *S 2.459e-04 2.544e-04 *D INVX1 
Xinport\[24\] I *L 0.000e+00 *S 2.459e-04 2.544e-04 *D INVX1 
Xinport\[23\] I *L 0.000e+00 *S 2.459e-04 2.544e-04 *D INVX1 
Xinport\[22\] I *L 0.000e+00 *S 2.459e-04 2.544e-04 *D INVX1 
Xinport\[21\] I *L 0.000e+00 *S 2.459e-04 2.544e-04 *D INVX1 
Xinport\[20\] I *L 0.000e+00 *S 2.459e-04 2.544e-04 *D INVX1 
Xinport\[19\] I *L 0.000e+00 *S 2.459e-04 2.544e-04 *D INVX1 
Xinport\[18\] I *L 0.000e+00 *S 2.459e-04 2.544e-04 *D INVX1 
Xinport\[17\] I *L 0.000e+00 *S 2.459e-04 2.544e-04 *D INVX1 
Xinport\[16\] I *L 0.000e+00 *S 2.459e-04 2.544e-04 *D INVX1 
Xinport\[15\] I *L 0.000e+00 *S 2.459e-04 2.544e-04 *D INVX1 
Xinport\[14\] I *L 0.000e+00 *S 2.459e-04 2.544e-04 *D INVX1 
Xinport\[13\] I *L 0.000e+00 *S 2.459e-04 2.544e-04 *D INVX1 
Xinport\[12\] I *L 0.000e+00 *S 2.459e-04 2.544e-04 *D INVX1 
Xinport\[11\] I *L 0.000e+00 *S 2.459e-04 2.544e-04 *D INVX1 
Xinport\[10\] I *L 0.000e+00 *S 2.459e-04 2.544e-04 *D INVX1 
Xinport\[9\] I *L 0.000e+00 *S 2.459e-04 2.544e-04 *D INVX1 
Xinport\[8\] I *L 0.000e+00 *S 2.459e-04 2.544e-04 *D INVX1 
Xinport\[7\] I *L 0.000e+00 *S 2.459e-04 2.544e-04 *D INVX1 
Xinport\[6\] I *L 0.000e+00 *S 2.459e-04 2.544e-04 *D INVX1 
Xinport\[5\] I *L 0.000e+00 *S 2.459e-04 2.544e-04 *D INVX1 
Xinport\[4\] I *L 0.000e+00 *S 2.459e-04 2.544e-04 *D INVX1 
Xinport\[3\] I *L 0.000e+00 *S 2.459e-04 2.544e-04 *D INVX1 
Xinport\[2\] I *L 0.000e+00 *S 2.459e-04 2.544e-04 *D INVX1 
Xinport\[1\] I *L 0.000e+00 *S 2.459e-04 2.544e-04 *D INVX1 
Xinport\[0\] I *L 0.000e+00 *S 2.459e-04 2.544e-04 *D INVX1 
Yinport\[31\] I *L 0.000e+00 *S 2.459e-04 2.544e-04 *D INVX1 
Yinport\[30\] I *L 0.000e+00 *S 2.459e-04 2.544e-04 *D INVX1 
Yinport\[29\] I *L 0.000e+00 *S 2.459e-04 2.544e-04 *D INVX1 
Yinport\[28\] I *L 0.000e+00 *S 2.459e-04 2.544e-04 *D INVX1 
Yinport\[27\] I *L 0.000e+00 *S 2.459e-04 2.544e-04 *D INVX1 
Yinport\[26\] I *L 0.000e+00 *S 2.459e-04 2.544e-04 *D INVX1 
Yinport\[25\] I *L 0.000e+00 *S 2.459e-04 2.544e-04 *D INVX1 
Yinport\[24\] I *L 0.000e+00 *S 2.459e-04 2.544e-04 *D INVX1 
Yinport\[23\] I *L 0.000e+00 *S 2.459e-04 2.544e-04 *D INVX1 
Yinport\[22\] I *L 0.000e+00 *S 2.459e-04 2.544e-04 *D INVX1 
Yinport\[21\] I *L 0.000e+00 *S 2.459e-04 2.544e-04 *D INVX1 
Yinport\[20\] I *L 0.000e+00 *S 2.459e-04 2.544e-04 *D INVX1 
Yinport\[19\] I *L 0.000e+00 *S 2.459e-04 2.544e-04 *D INVX1 
Yinport\[18\] I *L 0.000e+00 *S 2.459e-04 2.544e-04 *D INVX1 
Yinport\[17\] I *L 0.000e+00 *S 2.459e-04 2.544e-04 *D INVX1 
Yinport\[16\] I *L 0.000e+00 *S 2.459e-04 2.544e-04 *D INVX1 
Yinport\[15\] I *L 0.000e+00 *S 2.459e-04 2.544e-04 *D INVX1 
Yinport\[14\] I *L 0.000e+00 *S 2.459e-04 2.544e-04 *D INVX1 
Yinport\[13\] I *L 0.000e+00 *S 2.459e-04 2.544e-04 *D INVX1 
Yinport\[12\] I *L 0.000e+00 *S 2.459e-04 2.544e-04 *D INVX1 
Yinport\[11\] I *L 0.000e+00 *S 2.459e-04 2.544e-04 *D INVX1 
Yinport\[10\] I *L 0.000e+00 *S 2.459e-04 2.544e-04 *D INVX1 
Yinport\[9\] I *L 0.000e+00 *S 2.459e-04 2.544e-04 *D INVX1 
Yinport\[8\] I *L 0.000e+00 *S 2.459e-04 2.544e-04 *D INVX1 
Yinport\[7\] I *L 0.000e+00 *S 2.459e-04 2.544e-04 *D INVX1 
Yinport\[6\] I *L 0.000e+00 *S 2.459e-04 2.544e-04 *D INVX1 
Yinport\[5\] I *L 0.000e+00 *S 2.459e-04 2.544e-04 *D INVX1 
Yinport\[4\] I *L 0.000e+00 *S 2.459e-04 2.544e-04 *D INVX1 
Yinport\[3\] I *L 0.000e+00 *S 2.459e-04 2.544e-04 *D INVX1 
Yinport\[2\] I *L 0.000e+00 *S 2.459e-04 2.544e-04 *D INVX1 
Yinport\[1\] I *L 0.000e+00 *S 2.459e-04 2.544e-04 *D INVX1 
Yinport\[0\] I *L 0.000e+00 *S 2.459e-04 2.544e-04 *D INVX1 
Uinport\[31\] I *L 0.000e+00 *S 2.459e-04 2.544e-04 *D INVX1 
Uinport\[30\] I *L 0.000e+00 *S 2.459e-04 2.544e-04 *D INVX1 
Uinport\[29\] I *L 0.000e+00 *S 2.459e-04 2.544e-04 *D INVX1 
Uinport\[28\] I *L 0.000e+00 *S 2.459e-04 2.544e-04 *D INVX1 
Uinport\[27\] I *L 0.000e+00 *S 2.459e-04 2.544e-04 *D INVX1 
Uinport\[26\] I *L 0.000e+00 *S 2.459e-04 2.544e-04 *D INVX1 
Uinport\[25\] I *L 0.000e+00 *S 2.459e-04 2.544e-04 *D INVX1 
Uinport\[24\] I *L 0.000e+00 *S 2.459e-04 2.544e-04 *D INVX1 
Uinport\[23\] I *L 0.000e+00 *S 2.459e-04 2.544e-04 *D INVX1 
Uinport\[22\] I *L 0.000e+00 *S 2.459e-04 2.544e-04 *D INVX1 
Uinport\[21\] I *L 0.000e+00 *S 2.459e-04 2.544e-04 *D INVX1 
Uinport\[20\] I *L 0.000e+00 *S 2.459e-04 2.544e-04 *D INVX1 
Uinport\[19\] I *L 0.000e+00 *S 2.459e-04 2.544e-04 *D INVX1 
Uinport\[18\] I *L 0.000e+00 *S 2.459e-04 2.544e-04 *D INVX1 
Uinport\[17\] I *L 0.000e+00 *S 2.459e-04 2.544e-04 *D INVX1 
Uinport\[16\] I *L 0.000e+00 *S 2.459e-04 2.544e-04 *D INVX1 
Uinport\[15\] I *L 0.000e+00 *S 2.459e-04 2.544e-04 *D INVX1 
Uinport\[14\] I *L 0.000e+00 *S 2.459e-04 2.544e-04 *D INVX1 
Uinport\[13\] I *L 0.000e+00 *S 2.459e-04 2.544e-04 *D INVX1 
Uinport\[12\] I *L 0.000e+00 *S 2.459e-04 2.544e-04 *D INVX1 
Uinport\[11\] I *L 0.000e+00 *S 2.459e-04 2.544e-04 *D INVX1 
Uinport\[10\] I *L 0.000e+00 *S 2.459e-04 2.544e-04 *D INVX1 
Uinport\[9\] I *L 0.000e+00 *S 2.459e-04 2.544e-04 *D INVX1 
Uinport\[8\] I *L 0.000e+00 *S 2.459e-04 2.544e-04 *D INVX1 
Uinport\[7\] I *L 0.000e+00 *S 2.459e-04 2.544e-04 *D INVX1 
Uinport\[6\] I *L 0.000e+00 *S 2.459e-04 2.544e-04 *D INVX1 
Uinport\[5\] I *L 0.000e+00 *S 2.459e-04 2.544e-04 *D INVX1 
Uinport\[4\] I *L 0.000e+00 *S 2.459e-04 2.544e-04 *D INVX1 
Uinport\[3\] I *L 0.000e+00 *S 2.459e-04 2.544e-04 *D INVX1 
Uinport\[2\] I *L 0.000e+00 *S 2.459e-04 2.544e-04 *D INVX1 
Uinport\[1\] I *L 0.000e+00 *S 2.459e-04 2.544e-04 *D INVX1 
Uinport\[0\] I *L 0.000e+00 *S 2.459e-04 2.544e-04 *D INVX1 
Aport\[31\] I *L 0.000e+00 *S 2.459e-04 2.544e-04 *D INVX1 
Aport\[30\] I *L 0.000e+00 *S 2.459e-04 2.544e-04 *D INVX1 
Aport\[29\] I *L 0.000e+00 *S 2.459e-04 2.544e-04 *D INVX1 
Aport\[28\] I *L 0.000e+00 *S 2.459e-04 2.544e-04 *D INVX1 
Aport\[27\] I *L 0.000e+00 *S 2.459e-04 2.544e-04 *D INVX1 
Aport\[26\] I *L 0.000e+00 *S 2.459e-04 2.544e-04 *D INVX1 
Aport\[25\] I *L 0.000e+00 *S 2.459e-04 2.544e-04 *D INVX1 
Aport\[24\] I *L 0.000e+00 *S 2.459e-04 2.544e-04 *D INVX1 
Aport\[23\] I *L 0.000e+00 *S 2.459e-04 2.544e-04 *D INVX1 
Aport\[22\] I *L 0.000e+00 *S 2.459e-04 2.544e-04 *D INVX1 
Aport\[21\] I *L 0.000e+00 *S 2.459e-04 2.544e-04 *D INVX1 
Aport\[20\] I *L 0.000e+00 *S 2.459e-04 2.544e-04 *D INVX1 
Aport\[19\] I *L 0.000e+00 *S 2.459e-04 2.544e-04 *D INVX1 
Aport\[18\] I *L 0.000e+00 *S 2.459e-04 2.544e-04 *D INVX1 
Aport\[17\] I *L 0.000e+00 *S 2.459e-04 2.544e-04 *D INVX1 
Aport\[16\] I *L 0.000e+00 *S 2.459e-04 2.544e-04 *D INVX1 
Aport\[15\] I *L 0.000e+00 *S 2.459e-04 2.544e-04 *D INVX1 
Aport\[14\] I *L 0.000e+00 *S 2.459e-04 2.544e-04 *D INVX1 
Aport\[13\] I *L 0.000e+00 *S 2.459e-04 2.544e-04 *D INVX1 
Aport\[12\] I *L 0.000e+00 *S 2.459e-04 2.544e-04 *D INVX1 
Aport\[11\] I *L 0.000e+00 *S 2.459e-04 2.544e-04 *D INVX1 
Aport\[10\] I *L 0.000e+00 *S 2.459e-04 2.544e-04 *D INVX1 
Aport\[9\] I *L 0.000e+00 *S 2.459e-04 2.544e-04 *D INVX1 
Aport\[8\] I *L 0.000e+00 *S 2.459e-04 2.544e-04 *D INVX1 
Aport\[7\] I *L 0.000e+00 *S 2.459e-04 2.544e-04 *D INVX1 
Aport\[6\] I *L 0.000e+00 *S 2.459e-04 2.544e-04 *D INVX1 
Aport\[5\] I *L 0.000e+00 *S 2.459e-04 2.544e-04 *D INVX1 
Aport\[4\] I *L 0.000e+00 *S 2.459e-04 2.544e-04 *D INVX1 
Aport\[3\] I *L 0.000e+00 *S 2.459e-04 2.544e-04 *D INVX1 
Aport\[2\] I *L 0.000e+00 *S 2.459e-04 2.544e-04 *D INVX1 
Aport\[1\] I *L 0.000e+00 *S 2.459e-04 2.544e-04 *D INVX1 
Aport\[0\] I *L 0.000e+00 *S 2.459e-04 2.544e-04 *D INVX1 
DXport\[31\] I *L 0.000e+00 *S 8.721e-04 9.026e-04 *D INVX1 
DXport\[30\] I *L 0.000e+00 *S 8.721e-04 9.026e-04 *D INVX1 
DXport\[29\] I *L 0.000e+00 *S 8.721e-04 9.026e-04 *D INVX1 
DXport\[28\] I *L 0.000e+00 *S 8.721e-04 9.026e-04 *D INVX1 
DXport\[27\] I *L 0.000e+00 *S 8.721e-04 9.026e-04 *D INVX1 
DXport\[26\] I *L 0.000e+00 *S 8.721e-04 9.026e-04 *D INVX1 
DXport\[25\] I *L 0.000e+00 *S 8.721e-04 9.026e-04 *D INVX1 
DXport\[24\] I *L 0.000e+00 *S 8.721e-04 9.026e-04 *D INVX1 
DXport\[23\] I *L 0.000e+00 *S 8.721e-04 9.026e-04 *D INVX1 
DXport\[22\] I *L 0.000e+00 *S 8.721e-04 9.026e-04 *D INVX1 
DXport\[21\] I *L 0.000e+00 *S 8.721e-04 9.026e-04 *D INVX1 
DXport\[20\] I *L 0.000e+00 *S 8.721e-04 9.026e-04 *D INVX1 
DXport\[19\] I *L 0.000e+00 *S 8.721e-04 9.026e-04 *D INVX1 
DXport\[18\] I *L 0.000e+00 *S 8.721e-04 9.026e-04 *D INVX1 
DXport\[17\] I *L 0.000e+00 *S 8.721e-04 9.026e-04 *D INVX1 
DXport\[16\] I *L 0.000e+00 *S 8.721e-04 9.026e-04 *D INVX1 
DXport\[15\] I *L 0.000e+00 *S 8.721e-04 9.026e-04 *D INVX1 
DXport\[14\] I *L 0.000e+00 *S 8.721e-04 9.026e-04 *D INVX1 
DXport\[13\] I *L 0.000e+00 *S 8.721e-04 9.026e-04 *D INVX1 
DXport\[12\] I *L 0.000e+00 *S 8.721e-04 9.026e-04 *D INVX1 
DXport\[11\] I *L 0.000e+00 *S 8.721e-04 9.026e-04 *D INVX1 
DXport\[10\] I *L 0.000e+00 *S 8.721e-04 9.026e-04 *D INVX1 
DXport\[9\] I *L 0.000e+00 *S 8.721e-04 9.026e-04 *D INVX1 
DXport\[8\] I *L 0.000e+00 *S 8.721e-04 9.026e-04 *D INVX1 
DXport\[7\] I *L 0.000e+00 *S 8.721e-04 9.026e-04 *D INVX1 
DXport\[6\] I *L 0.000e+00 *S 8.721e-04 9.026e-04 *D INVX1 
DXport\[5\] I *L 0.000e+00 *S 8.721e-04 9.026e-04 *D INVX1 
DXport\[4\] I *L 0.000e+00 *S 8.721e-04 9.026e-04 *D INVX1 
DXport\[3\] I *L 0.000e+00 *S 8.721e-04 9.026e-04 *D INVX1 
DXport\[2\] I *L 0.000e+00 *S 8.721e-04 9.026e-04 *D INVX1 
DXport\[1\] I *L 0.000e+00 *S 8.721e-04 9.026e-04 *D INVX1 
DXport\[0\] I *L 0.000e+00 *S 8.721e-04 9.026e-04 *D INVX1 
Xoutport\[31\] O *L 4.000e-03 *S 0.000e+00 0.000e+00 
Xoutport\[30\] O *L 4.000e-03 *S 0.000e+00 0.000e+00 
Xoutport\[29\] O *L 4.000e-03 *S 0.000e+00 0.000e+00 
Xoutport\[28\] O *L 4.000e-03 *S 0.000e+00 0.000e+00 
Xoutport\[27\] O *L 4.000e-03 *S 0.000e+00 0.000e+00 
Xoutport\[26\] O *L 4.000e-03 *S 0.000e+00 0.000e+00 
Xoutport\[25\] O *L 4.000e-03 *S 0.000e+00 0.000e+00 
Xoutport\[24\] O *L 4.000e-03 *S 0.000e+00 0.000e+00 
Xoutport\[23\] O *L 4.000e-03 *S 0.000e+00 0.000e+00 
Xoutport\[22\] O *L 4.000e-03 *S 0.000e+00 0.000e+00 
Xoutport\[21\] O *L 4.000e-03 *S 0.000e+00 0.000e+00 
Xoutport\[20\] O *L 4.000e-03 *S 0.000e+00 0.000e+00 
Xoutport\[19\] O *L 4.000e-03 *S 0.000e+00 0.000e+00 
Xoutport\[18\] O *L 4.000e-03 *S 0.000e+00 0.000e+00 
Xoutport\[17\] O *L 4.000e-03 *S 0.000e+00 0.000e+00 
Xoutport\[16\] O *L 4.000e-03 *S 0.000e+00 0.000e+00 
Xoutport\[15\] O *L 4.000e-03 *S 0.000e+00 0.000e+00 
Xoutport\[14\] O *L 4.000e-03 *S 0.000e+00 0.000e+00 
Xoutport\[13\] O *L 4.000e-03 *S 0.000e+00 0.000e+00 
Xoutport\[12\] O *L 4.000e-03 *S 0.000e+00 0.000e+00 
Xoutport\[11\] O *L 4.000e-03 *S 0.000e+00 0.000e+00 
Xoutport\[10\] O *L 4.000e-03 *S 0.000e+00 0.000e+00 
Xoutport\[9\] O *L 4.000e-03 *S 0.000e+00 0.000e+00 
Xoutport\[8\] O *L 4.000e-03 *S 0.000e+00 0.000e+00 
Xoutport\[7\] O *L 4.000e-03 *S 0.000e+00 0.000e+00 
Xoutport\[6\] O *L 4.000e-03 *S 0.000e+00 0.000e+00 
Xoutport\[5\] O *L 4.000e-03 *S 0.000e+00 0.000e+00 
Xoutport\[4\] O *L 4.000e-03 *S 0.000e+00 0.000e+00 
Xoutport\[3\] O *L 4.000e-03 *S 0.000e+00 0.000e+00 
Xoutport\[2\] O *L 4.000e-03 *S 0.000e+00 0.000e+00 
Xoutport\[1\] O *L 4.000e-03 *S 0.000e+00 0.000e+00 
Xoutport\[0\] O *L 4.000e-03 *S 0.000e+00 0.000e+00 
Youtport\[31\] O *L 4.000e-03 *S 0.000e+00 0.000e+00 
Youtport\[30\] O *L 4.000e-03 *S 0.000e+00 0.000e+00 
Youtport\[29\] O *L 4.000e-03 *S 0.000e+00 0.000e+00 
Youtport\[28\] O *L 4.000e-03 *S 0.000e+00 0.000e+00 
Youtport\[27\] O *L 4.000e-03 *S 0.000e+00 0.000e+00 
Youtport\[26\] O *L 4.000e-03 *S 0.000e+00 0.000e+00 
Youtport\[25\] O *L 4.000e-03 *S 0.000e+00 0.000e+00 
Youtport\[24\] O *L 4.000e-03 *S 0.000e+00 0.000e+00 
Youtport\[23\] O *L 4.000e-03 *S 0.000e+00 0.000e+00 
Youtport\[22\] O *L 4.000e-03 *S 0.000e+00 0.000e+00 
Youtport\[21\] O *L 4.000e-03 *S 0.000e+00 0.000e+00 
Youtport\[20\] O *L 4.000e-03 *S 0.000e+00 0.000e+00 
Youtport\[19\] O *L 4.000e-03 *S 0.000e+00 0.000e+00 
Youtport\[18\] O *L 4.000e-03 *S 0.000e+00 0.000e+00 
Youtport\[17\] O *L 4.000e-03 *S 0.000e+00 0.000e+00 
Youtport\[16\] O *L 4.000e-03 *S 0.000e+00 0.000e+00 
Youtport\[15\] O *L 4.000e-03 *S 0.000e+00 0.000e+00 
Youtport\[14\] O *L 4.000e-03 *S 0.000e+00 0.000e+00 
Youtport\[13\] O *L 4.000e-03 *S 0.000e+00 0.000e+00 
Youtport\[12\] O *L 4.000e-03 *S 0.000e+00 0.000e+00 
Youtport\[11\] O *L 4.000e-03 *S 0.000e+00 0.000e+00 
Youtport\[10\] O *L 4.000e-03 *S 0.000e+00 0.000e+00 
Youtport\[9\] O *L 4.000e-03 *S 0.000e+00 0.000e+00 
Youtport\[8\] O *L 4.000e-03 *S 0.000e+00 0.000e+00 
Youtport\[7\] O *L 4.000e-03 *S 0.000e+00 0.000e+00 
Youtport\[6\] O *L 4.000e-03 *S 0.000e+00 0.000e+00 
Youtport\[5\] O *L 4.000e-03 *S 0.000e+00 0.000e+00 
Youtport\[4\] O *L 4.000e-03 *S 0.000e+00 0.000e+00 
Youtport\[3\] O *L 4.000e-03 *S 0.000e+00 0.000e+00 
Youtport\[2\] O *L 4.000e-03 *S 0.000e+00 0.000e+00 
Youtport\[1\] O *L 4.000e-03 *S 0.000e+00 0.000e+00 
Youtport\[0\] O *L 4.000e-03 *S 0.000e+00 0.000e+00 
Uoutport\[31\] O *L 4.000e-03 *S 0.000e+00 0.000e+00 
Uoutport\[30\] O *L 4.000e-03 *S 0.000e+00 0.000e+00 
Uoutport\[29\] O *L 4.000e-03 *S 0.000e+00 0.000e+00 
Uoutport\[28\] O *L 4.000e-03 *S 0.000e+00 0.000e+00 
Uoutport\[27\] O *L 4.000e-03 *S 0.000e+00 0.000e+00 
Uoutport\[26\] O *L 4.000e-03 *S 0.000e+00 0.000e+00 
Uoutport\[25\] O *L 4.000e-03 *S 0.000e+00 0.000e+00 
Uoutport\[24\] O *L 4.000e-03 *S 0.000e+00 0.000e+00 
Uoutport\[23\] O *L 4.000e-03 *S 0.000e+00 0.000e+00 
Uoutport\[22\] O *L 4.000e-03 *S 0.000e+00 0.000e+00 
Uoutport\[21\] O *L 4.000e-03 *S 0.000e+00 0.000e+00 
Uoutport\[20\] O *L 4.000e-03 *S 0.000e+00 0.000e+00 
Uoutport\[19\] O *L 4.000e-03 *S 0.000e+00 0.000e+00 
Uoutport\[18\] O *L 4.000e-03 *S 0.000e+00 0.000e+00 
Uoutport\[17\] O *L 4.000e-03 *S 0.000e+00 0.000e+00 
Uoutport\[16\] O *L 4.000e-03 *S 0.000e+00 0.000e+00 
Uoutport\[15\] O *L 4.000e-03 *S 0.000e+00 0.000e+00 
Uoutport\[14\] O *L 4.000e-03 *S 0.000e+00 0.000e+00 
Uoutport\[13\] O *L 4.000e-03 *S 0.000e+00 0.000e+00 
Uoutport\[12\] O *L 4.000e-03 *S 0.000e+00 0.000e+00 
Uoutport\[11\] O *L 4.000e-03 *S 0.000e+00 0.000e+00 
Uoutport\[10\] O *L 4.000e-03 *S 0.000e+00 0.000e+00 
Uoutport\[9\] O *L 4.000e-03 *S 0.000e+00 0.000e+00 
Uoutport\[8\] O *L 4.000e-03 *S 0.000e+00 0.000e+00 
Uoutport\[7\] O *L 4.000e-03 *S 0.000e+00 0.000e+00 
Uoutport\[6\] O *L 4.000e-03 *S 0.000e+00 0.000e+00 
Uoutport\[5\] O *L 4.000e-03 *S 0.000e+00 0.000e+00 
Uoutport\[4\] O *L 4.000e-03 *S 0.000e+00 0.000e+00 
Uoutport\[3\] O *L 4.000e-03 *S 0.000e+00 0.000e+00 
Uoutport\[2\] O *L 4.000e-03 *S 0.000e+00 0.000e+00 
Uoutport\[1\] O *L 4.000e-03 *S 0.000e+00 0.000e+00 
Uoutport\[0\] O *L 4.000e-03 *S 0.000e+00 0.000e+00 
clk I *L 0.000e+00 *S 1.983e-01 1.972e-01 *D INVX1 
reset I *L 0.000e+00 *S 8.721e-04 9.026e-04 *D INVX1 

*R_NET N0 1.773e+00
*DRIVER B_0:Z
*CELL GTECH_BUF
*C2_R1_C1 8.867e-01 1.372e-01 8.867e-01 
*LOADS
*RC C419:CONTROL1_0 6.757e-03
*RC C418:CONTROL1_0 6.757e-03
*RC C417:CONTROL1_0 6.757e-03
*RC C416:CONTROL1_0 6.757e-03
*RC C415:CONTROL1_0 6.757e-03
*RC C414:CONTROL1_0 6.757e-03
*END

*R_NET Xinport\[31\] 2.211e-01
*DRIVER Xinport\[31\]
*CELL INVX1
*C2_R1_C1 1.106e-01 1.710e-02 1.106e-01 
*LOADS
*RC C416:DATA2_31 3.783e-03
*END

*R_NET Xinport\[30\] 2.211e-01
*DRIVER Xinport\[30\]
*CELL INVX1
*C2_R1_C1 1.106e-01 1.710e-02 1.106e-01 
*LOADS
*RC C416:DATA2_30 3.783e-03
*END

*R_NET Xinport\[29\] 2.211e-01
*DRIVER Xinport\[29\]
*CELL INVX1
*C2_R1_C1 1.106e-01 1.710e-02 1.106e-01 
*LOADS
*RC C416:DATA2_29 3.783e-03
*END

*R_NET Xinport\[28\] 2.211e-01
*DRIVER Xinport\[28\]
*CELL INVX1
*C2_R1_C1 1.106e-01 1.710e-02 1.106e-01 
*LOADS
*RC C416:DATA2_28 3.783e-03
*END

*R_NET Xinport\[27\] 2.211e-01
*DRIVER Xinport\[27\]
*CELL INVX1
*C2_R1_C1 1.106e-01 1.710e-02 1.106e-01 
*LOADS
*RC C416:DATA2_27 3.783e-03
*END

*R_NET Xinport\[26\] 2.211e-01
*DRIVER Xinport\[26\]
*CELL INVX1
*C2_R1_C1 1.106e-01 1.710e-02 1.106e-01 
*LOADS
*RC C416:DATA2_26 3.783e-03
*END

*R_NET Xinport\[25\] 2.211e-01
*DRIVER Xinport\[25\]
*CELL INVX1
*C2_R1_C1 1.106e-01 1.710e-02 1.106e-01 
*LOADS
*RC C416:DATA2_25 3.783e-03
*END

*R_NET Xinport\[24\] 2.211e-01
*DRIVER Xinport\[24\]
*CELL INVX1
*C2_R1_C1 1.106e-01 1.710e-02 1.106e-01 
*LOADS
*RC C416:DATA2_24 3.783e-03
*END

*R_NET Xinport\[23\] 2.211e-01
*DRIVER Xinport\[23\]
*CELL INVX1
*C2_R1_C1 1.106e-01 1.710e-02 1.106e-01 
*LOADS
*RC C416:DATA2_23 3.783e-03
*END

*R_NET Xinport\[22\] 2.211e-01
*DRIVER Xinport\[22\]
*CELL INVX1
*C2_R1_C1 1.106e-01 1.710e-02 1.106e-01 
*LOADS
*RC C416:DATA2_22 3.783e-03
*END

*R_NET Xinport\[21\] 2.211e-01
*DRIVER Xinport\[21\]
*CELL INVX1
*C2_R1_C1 1.106e-01 1.710e-02 1.106e-01 
*LOADS
*RC C416:DATA2_21 3.783e-03
*END

*R_NET Xinport\[20\] 2.211e-01
*DRIVER Xinport\[20\]
*CELL INVX1
*C2_R1_C1 1.106e-01 1.710e-02 1.106e-01 
*LOADS
*RC C416:DATA2_20 3.783e-03
*END

*R_NET Xinport\[19\] 2.211e-01
*DRIVER Xinport\[19\]
*CELL INVX1
*C2_R1_C1 1.106e-01 1.710e-02 1.106e-01 
*LOADS
*RC C416:DATA2_19 3.783e-03
*END

*R_NET Xinport\[18\] 2.211e-01
*DRIVER Xinport\[18\]
*CELL INVX1
*C2_R1_C1 1.106e-01 1.710e-02 1.106e-01 
*LOADS
*RC C416:DATA2_18 3.783e-03
*END

*R_NET Xinport\[17\] 2.211e-01
*DRIVER Xinport\[17\]
*CELL INVX1
*C2_R1_C1 1.106e-01 1.710e-02 1.106e-01 
*LOADS
*RC C416:DATA2_17 3.783e-03
*END

*R_NET Xinport\[16\] 2.211e-01
*DRIVER Xinport\[16\]
*CELL INVX1
*C2_R1_C1 1.106e-01 1.710e-02 1.106e-01 
*LOADS
*RC C416:DATA2_16 3.783e-03
*END

*R_NET Xinport\[15\] 2.211e-01
*DRIVER Xinport\[15\]
*CELL INVX1
*C2_R1_C1 1.106e-01 1.710e-02 1.106e-01 
*LOADS
*RC C416:DATA2_15 3.783e-03
*END

*R_NET Xinport\[14\] 2.211e-01
*DRIVER Xinport\[14\]
*CELL INVX1
*C2_R1_C1 1.106e-01 1.710e-02 1.106e-01 
*LOADS
*RC C416:DATA2_14 3.783e-03
*END

*R_NET Xinport\[13\] 2.211e-01
*DRIVER Xinport\[13\]
*CELL INVX1
*C2_R1_C1 1.106e-01 1.710e-02 1.106e-01 
*LOADS
*RC C416:DATA2_13 3.783e-03
*END

*R_NET Xinport\[12\] 2.211e-01
*DRIVER Xinport\[12\]
*CELL INVX1
*C2_R1_C1 1.106e-01 1.710e-02 1.106e-01 
*LOADS
*RC C416:DATA2_12 3.783e-03
*END

*R_NET Xinport\[11\] 2.211e-01
*DRIVER Xinport\[11\]
*CELL INVX1
*C2_R1_C1 1.106e-01 1.710e-02 1.106e-01 
*LOADS
*RC C416:DATA2_11 3.783e-03
*END

*R_NET Xinport\[10\] 2.211e-01
*DRIVER Xinport\[10\]
*CELL INVX1
*C2_R1_C1 1.106e-01 1.710e-02 1.106e-01 
*LOADS
*RC C416:DATA2_10 3.783e-03
*END

*R_NET Xinport\[9\] 2.211e-01
*DRIVER Xinport\[9\]
*CELL INVX1
*C2_R1_C1 1.106e-01 1.710e-02 1.106e-01 
*LOADS
*RC C416:DATA2_9 3.783e-03
*END

*R_NET Xinport\[8\] 2.211e-01
*DRIVER Xinport\[8\]
*CELL INVX1
*C2_R1_C1 1.106e-01 1.710e-02 1.106e-01 
*LOADS
*RC C416:DATA2_8 3.783e-03
*END

*R_NET Xinport\[7\] 2.211e-01
*DRIVER Xinport\[7\]
*CELL INVX1
*C2_R1_C1 1.106e-01 1.710e-02 1.106e-01 
*LOADS
*RC C416:DATA2_7 3.783e-03
*END

*R_NET Xinport\[6\] 2.211e-01
*DRIVER Xinport\[6\]
*CELL INVX1
*C2_R1_C1 1.106e-01 1.710e-02 1.106e-01 
*LOADS
*RC C416:DATA2_6 3.783e-03
*END

*R_NET Xinport\[5\] 2.211e-01
*DRIVER Xinport\[5\]
*CELL INVX1
*C2_R1_C1 1.106e-01 1.710e-02 1.106e-01 
*LOADS
*RC C416:DATA2_5 3.783e-03
*END

*R_NET Xinport\[4\] 2.211e-01
*DRIVER Xinport\[4\]
*CELL INVX1
*C2_R1_C1 1.106e-01 1.710e-02 1.106e-01 
*LOADS
*RC C416:DATA2_4 3.783e-03
*END

*R_NET Xinport\[3\] 2.211e-01
*DRIVER Xinport\[3\]
*CELL INVX1
*C2_R1_C1 1.106e-01 1.710e-02 1.106e-01 
*LOADS
*RC C416:DATA2_3 3.783e-03
*END

*R_NET Xinport\[2\] 2.211e-01
*DRIVER Xinport\[2\]
*CELL INVX1
*C2_R1_C1 1.106e-01 1.710e-02 1.106e-01 
*LOADS
*RC C416:DATA2_2 3.783e-03
*END

*R_NET Xinport\[1\] 2.211e-01
*DRIVER Xinport\[1\]
*CELL INVX1
*C2_R1_C1 1.106e-01 1.710e-02 1.106e-01 
*LOADS
*RC C416:DATA2_1 3.783e-03
*END

*R_NET Xinport\[0\] 2.211e-01
*DRIVER Xinport\[0\]
*CELL INVX1
*C2_R1_C1 1.106e-01 1.710e-02 1.106e-01 
*LOADS
*RC C416:DATA2_0 3.783e-03
*END

*R_NET Yinport\[31\] 2.211e-01
*DRIVER Yinport\[31\]
*CELL INVX1
*C2_R1_C1 1.106e-01 1.710e-02 1.106e-01 
*LOADS
*RC C417:DATA2_31 3.783e-03
*END

*R_NET Yinport\[30\] 2.211e-01
*DRIVER Yinport\[30\]
*CELL INVX1
*C2_R1_C1 1.106e-01 1.710e-02 1.106e-01 
*LOADS
*RC C417:DATA2_30 3.783e-03
*END

*R_NET Yinport\[29\] 2.211e-01
*DRIVER Yinport\[29\]
*CELL INVX1
*C2_R1_C1 1.106e-01 1.710e-02 1.106e-01 
*LOADS
*RC C417:DATA2_29 3.783e-03
*END

*R_NET Yinport\[28\] 2.211e-01
*DRIVER Yinport\[28\]
*CELL INVX1
*C2_R1_C1 1.106e-01 1.710e-02 1.106e-01 
*LOADS
*RC C417:DATA2_28 3.783e-03
*END

*R_NET Yinport\[27\] 2.211e-01
*DRIVER Yinport\[27\]
*CELL INVX1
*C2_R1_C1 1.106e-01 1.710e-02 1.106e-01 
*LOADS
*RC C417:DATA2_27 3.783e-03
*END

*R_NET Yinport\[26\] 2.211e-01
*DRIVER Yinport\[26\]
*CELL INVX1
*C2_R1_C1 1.106e-01 1.710e-02 1.106e-01 
*LOADS
*RC C417:DATA2_26 3.783e-03
*END

*R_NET Yinport\[25\] 2.211e-01
*DRIVER Yinport\[25\]
*CELL INVX1
*C2_R1_C1 1.106e-01 1.710e-02 1.106e-01 
*LOADS
*RC C417:DATA2_25 3.783e-03
*END

*R_NET Yinport\[24\] 2.211e-01
*DRIVER Yinport\[24\]
*CELL INVX1
*C2_R1_C1 1.106e-01 1.710e-02 1.106e-01 
*LOADS
*RC C417:DATA2_24 3.783e-03
*END

*R_NET Yinport\[23\] 2.211e-01
*DRIVER Yinport\[23\]
*CELL INVX1
*C2_R1_C1 1.106e-01 1.710e-02 1.106e-01 
*LOADS
*RC C417:DATA2_23 3.783e-03
*END

*R_NET Yinport\[22\] 2.211e-01
*DRIVER Yinport\[22\]
*CELL INVX1
*C2_R1_C1 1.106e-01 1.710e-02 1.106e-01 
*LOADS
*RC C417:DATA2_22 3.783e-03
*END

*R_NET Yinport\[21\] 2.211e-01
*DRIVER Yinport\[21\]
*CELL INVX1
*C2_R1_C1 1.106e-01 1.710e-02 1.106e-01 
*LOADS
*RC C417:DATA2_21 3.783e-03
*END

*R_NET Yinport\[20\] 2.211e-01
*DRIVER Yinport\[20\]
*CELL INVX1
*C2_R1_C1 1.106e-01 1.710e-02 1.106e-01 
*LOADS
*RC C417:DATA2_20 3.783e-03
*END

*R_NET Yinport\[19\] 2.211e-01
*DRIVER Yinport\[19\]
*CELL INVX1
*C2_R1_C1 1.106e-01 1.710e-02 1.106e-01 
*LOADS
*RC C417:DATA2_19 3.783e-03
*END

*R_NET Yinport\[18\] 2.211e-01
*DRIVER Yinport\[18\]
*CELL INVX1
*C2_R1_C1 1.106e-01 1.710e-02 1.106e-01 
*LOADS
*RC C417:DATA2_18 3.783e-03
*END

*R_NET Yinport\[17\] 2.211e-01
*DRIVER Yinport\[17\]
*CELL INVX1
*C2_R1_C1 1.106e-01 1.710e-02 1.106e-01 
*LOADS
*RC C417:DATA2_17 3.783e-03
*END

*R_NET Yinport\[16\] 2.211e-01
*DRIVER Yinport\[16\]
*CELL INVX1
*C2_R1_C1 1.106e-01 1.710e-02 1.106e-01 
*LOADS
*RC C417:DATA2_16 3.783e-03
*END

*R_NET Yinport\[15\] 2.211e-01
*DRIVER Yinport\[15\]
*CELL INVX1
*C2_R1_C1 1.106e-01 1.710e-02 1.106e-01 
*LOADS
*RC C417:DATA2_15 3.783e-03
*END

*R_NET Yinport\[14\] 2.211e-01
*DRIVER Yinport\[14\]
*CELL INVX1
*C2_R1_C1 1.106e-01 1.710e-02 1.106e-01 
*LOADS
*RC C417:DATA2_14 3.783e-03
*END

*R_NET Yinport\[13\] 2.211e-01
*DRIVER Yinport\[13\]
*CELL INVX1
*C2_R1_C1 1.106e-01 1.710e-02 1.106e-01 
*LOADS
*RC C417:DATA2_13 3.783e-03
*END

*R_NET Yinport\[12\] 2.211e-01
*DRIVER Yinport\[12\]
*CELL INVX1
*C2_R1_C1 1.106e-01 1.710e-02 1.106e-01 
*LOADS
*RC C417:DATA2_12 3.783e-03
*END

*R_NET Yinport\[11\] 2.211e-01
*DRIVER Yinport\[11\]
*CELL INVX1
*C2_R1_C1 1.106e-01 1.710e-02 1.106e-01 
*LOADS
*RC C417:DATA2_11 3.783e-03
*END

*R_NET Yinport\[10\] 2.211e-01
*DRIVER Yinport\[10\]
*CELL INVX1
*C2_R1_C1 1.106e-01 1.710e-02 1.106e-01 
*LOADS
*RC C417:DATA2_10 3.783e-03
*END

*R_NET Yinport\[9\] 2.211e-01
*DRIVER Yinport\[9\]
*CELL INVX1
*C2_R1_C1 1.106e-01 1.710e-02 1.106e-01 
*LOADS
*RC C417:DATA2_9 3.783e-03
*END

*R_NET Yinport\[8\] 2.211e-01
*DRIVER Yinport\[8\]
*CELL INVX1
*C2_R1_C1 1.106e-01 1.710e-02 1.106e-01 
*LOADS
*RC C417:DATA2_8 3.783e-03
*END

*R_NET Yinport\[7\] 2.211e-01
*DRIVER Yinport\[7\]
*CELL INVX1
*C2_R1_C1 1.106e-01 1.710e-02 1.106e-01 
*LOADS
*RC C417:DATA2_7 3.783e-03
*END

*R_NET Yinport\[6\] 2.211e-01
*DRIVER Yinport\[6\]
*CELL INVX1
*C2_R1_C1 1.106e-01 1.710e-02 1.106e-01 
*LOADS
*RC C417:DATA2_6 3.783e-03
*END

*R_NET Yinport\[5\] 2.211e-01
*DRIVER Yinport\[5\]
*CELL INVX1
*C2_R1_C1 1.106e-01 1.710e-02 1.106e-01 
*LOADS
*RC C417:DATA2_5 3.783e-03
*END

*R_NET Yinport\[4\] 2.211e-01
*DRIVER Yinport\[4\]
*CELL INVX1
*C2_R1_C1 1.106e-01 1.710e-02 1.106e-01 
*LOADS
*RC C417:DATA2_4 3.783e-03
*END

*R_NET Yinport\[3\] 2.211e-01
*DRIVER Yinport\[3\]
*CELL INVX1
*C2_R1_C1 1.106e-01 1.710e-02 1.106e-01 
*LOADS
*RC C417:DATA2_3 3.783e-03
*END

*R_NET Yinport\[2\] 2.211e-01
*DRIVER Yinport\[2\]
*CELL INVX1
*C2_R1_C1 1.106e-01 1.710e-02 1.106e-01 
*LOADS
*RC C417:DATA2_2 3.783e-03
*END

*R_NET Yinport\[1\] 2.211e-01
*DRIVER Yinport\[1\]
*CELL INVX1
*C2_R1_C1 1.106e-01 1.710e-02 1.106e-01 
*LOADS
*RC C417:DATA2_1 3.783e-03
*END

*R_NET Yinport\[0\] 2.211e-01
*DRIVER Yinport\[0\]
*CELL INVX1
*C2_R1_C1 1.106e-01 1.710e-02 1.106e-01 
*LOADS
*RC C417:DATA2_0 3.783e-03
*END

*R_NET Uinport\[31\] 2.211e-01
*DRIVER Uinport\[31\]
*CELL INVX1
*C2_R1_C1 1.106e-01 1.710e-02 1.106e-01 
*LOADS
*RC C418:DATA2_31 3.783e-03
*END

*R_NET Uinport\[30\] 2.211e-01
*DRIVER Uinport\[30\]
*CELL INVX1
*C2_R1_C1 1.106e-01 1.710e-02 1.106e-01 
*LOADS
*RC C418:DATA2_30 3.783e-03
*END

*R_NET Uinport\[29\] 2.211e-01
*DRIVER Uinport\[29\]
*CELL INVX1
*C2_R1_C1 1.106e-01 1.710e-02 1.106e-01 
*LOADS
*RC C418:DATA2_29 3.783e-03
*END

*R_NET Uinport\[28\] 2.211e-01
*DRIVER Uinport\[28\]
*CELL INVX1
*C2_R1_C1 1.106e-01 1.710e-02 1.106e-01 
*LOADS
*RC C418:DATA2_28 3.783e-03
*END

*R_NET Uinport\[27\] 2.211e-01
*DRIVER Uinport\[27\]
*CELL INVX1
*C2_R1_C1 1.106e-01 1.710e-02 1.106e-01 
*LOADS
*RC C418:DATA2_27 3.783e-03
*END

*R_NET Uinport\[26\] 2.211e-01
*DRIVER Uinport\[26\]
*CELL INVX1
*C2_R1_C1 1.106e-01 1.710e-02 1.106e-01 
*LOADS
*RC C418:DATA2_26 3.783e-03
*END

*R_NET Uinport\[25\] 2.211e-01
*DRIVER Uinport\[25\]
*CELL INVX1
*C2_R1_C1 1.106e-01 1.710e-02 1.106e-01 
*LOADS
*RC C418:DATA2_25 3.783e-03
*END

*R_NET Uinport\[24\] 2.211e-01
*DRIVER Uinport\[24\]
*CELL INVX1
*C2_R1_C1 1.106e-01 1.710e-02 1.106e-01 
*LOADS
*RC C418:DATA2_24 3.783e-03
*END

*R_NET Uinport\[23\] 2.211e-01
*DRIVER Uinport\[23\]
*CELL INVX1
*C2_R1_C1 1.106e-01 1.710e-02 1.106e-01 
*LOADS
*RC C418:DATA2_23 3.783e-03
*END

*R_NET Uinport\[22\] 2.211e-01
*DRIVER Uinport\[22\]
*CELL INVX1
*C2_R1_C1 1.106e-01 1.710e-02 1.106e-01 
*LOADS
*RC C418:DATA2_22 3.783e-03
*END

*R_NET Uinport\[21\] 2.211e-01
*DRIVER Uinport\[21\]
*CELL INVX1
*C2_R1_C1 1.106e-01 1.710e-02 1.106e-01 
*LOADS
*RC C418:DATA2_21 3.783e-03
*END

*R_NET Uinport\[20\] 2.211e-01
*DRIVER Uinport\[20\]
*CELL INVX1
*C2_R1_C1 1.106e-01 1.710e-02 1.106e-01 
*LOADS
*RC C418:DATA2_20 3.783e-03
*END

*R_NET Uinport\[19\] 2.211e-01
*DRIVER Uinport\[19\]
*CELL INVX1
*C2_R1_C1 1.106e-01 1.710e-02 1.106e-01 
*LOADS
*RC C418:DATA2_19 3.783e-03
*END

*R_NET Uinport\[18\] 2.211e-01
*DRIVER Uinport\[18\]
*CELL INVX1
*C2_R1_C1 1.106e-01 1.710e-02 1.106e-01 
*LOADS
*RC C418:DATA2_18 3.783e-03
*END

*R_NET Uinport\[17\] 2.211e-01
*DRIVER Uinport\[17\]
*CELL INVX1
*C2_R1_C1 1.106e-01 1.710e-02 1.106e-01 
*LOADS
*RC C418:DATA2_17 3.783e-03
*END

*R_NET Uinport\[16\] 2.211e-01
*DRIVER Uinport\[16\]
*CELL INVX1
*C2_R1_C1 1.106e-01 1.710e-02 1.106e-01 
*LOADS
*RC C418:DATA2_16 3.783e-03
*END

*R_NET Uinport\[15\] 2.211e-01
*DRIVER Uinport\[15\]
*CELL INVX1
*C2_R1_C1 1.106e-01 1.710e-02 1.106e-01 
*LOADS
*RC C418:DATA2_15 3.783e-03
*END

*R_NET Uinport\[14\] 2.211e-01
*DRIVER Uinport\[14\]
*CELL INVX1
*C2_R1_C1 1.106e-01 1.710e-02 1.106e-01 
*LOADS
*RC C418:DATA2_14 3.783e-03
*END

*R_NET Uinport\[13\] 2.211e-01
*DRIVER Uinport\[13\]
*CELL INVX1
*C2_R1_C1 1.106e-01 1.710e-02 1.106e-01 
*LOADS
*RC C418:DATA2_13 3.783e-03
*END

*R_NET Uinport\[12\] 2.211e-01
*DRIVER Uinport\[12\]
*CELL INVX1
*C2_R1_C1 1.106e-01 1.710e-02 1.106e-01 
*LOADS
*RC C418:DATA2_12 3.783e-03
*END

*R_NET Uinport\[11\] 2.211e-01
*DRIVER Uinport\[11\]
*CELL INVX1
*C2_R1_C1 1.106e-01 1.710e-02 1.106e-01 
*LOADS
*RC C418:DATA2_11 3.783e-03
*END

*R_NET Uinport\[10\] 2.211e-01
*DRIVER Uinport\[10\]
*CELL INVX1
*C2_R1_C1 1.106e-01 1.710e-02 1.106e-01 
*LOADS
*RC C418:DATA2_10 3.783e-03
*END

*R_NET Uinport\[9\] 2.211e-01
*DRIVER Uinport\[9\]
*CELL INVX1
*C2_R1_C1 1.106e-01 1.710e-02 1.106e-01 
*LOADS
*RC C418:DATA2_9 3.783e-03
*END

*R_NET Uinport\[8\] 2.211e-01
*DRIVER Uinport\[8\]
*CELL INVX1
*C2_R1_C1 1.106e-01 1.710e-02 1.106e-01 
*LOADS
*RC C418:DATA2_8 3.783e-03
*END

*R_NET Uinport\[7\] 2.211e-01
*DRIVER Uinport\[7\]
*CELL INVX1
*C2_R1_C1 1.106e-01 1.710e-02 1.106e-01 
*LOADS
*RC C418:DATA2_7 3.783e-03
*END

*R_NET Uinport\[6\] 2.211e-01
*DRIVER Uinport\[6\]
*CELL INVX1
*C2_R1_C1 1.106e-01 1.710e-02 1.106e-01 
*LOADS
*RC C418:DATA2_6 3.783e-03
*END

*R_NET Uinport\[5\] 2.211e-01
*DRIVER Uinport\[5\]
*CELL INVX1
*C2_R1_C1 1.106e-01 1.710e-02 1.106e-01 
*LOADS
*RC C418:DATA2_5 3.783e-03
*END

*R_NET Uinport\[4\] 2.211e-01
*DRIVER Uinport\[4\]
*CELL INVX1
*C2_R1_C1 1.106e-01 1.710e-02 1.106e-01 
*LOADS
*RC C418:DATA2_4 3.783e-03
*END

*R_NET Uinport\[3\] 2.211e-01
*DRIVER Uinport\[3\]
*CELL INVX1
*C2_R1_C1 1.106e-01 1.710e-02 1.106e-01 
*LOADS
*RC C418:DATA2_3 3.783e-03
*END

*R_NET Uinport\[2\] 2.211e-01
*DRIVER Uinport\[2\]
*CELL INVX1
*C2_R1_C1 1.106e-01 1.710e-02 1.106e-01 
*LOADS
*RC C418:DATA2_2 3.783e-03
*END

*R_NET Uinport\[1\] 2.211e-01
*DRIVER Uinport\[1\]
*CELL INVX1
*C2_R1_C1 1.106e-01 1.710e-02 1.106e-01 
*LOADS
*RC C418:DATA2_1 3.783e-03
*END

*R_NET Uinport\[0\] 2.211e-01
*DRIVER Uinport\[0\]
*CELL INVX1
*C2_R1_C1 1.106e-01 1.710e-02 1.106e-01 
*LOADS
*RC C418:DATA2_0 3.783e-03
*END

*R_NET Aport\[31\] 2.211e-01
*DRIVER Aport\[31\]
*CELL INVX1
*C2_R1_C1 1.106e-01 1.710e-02 1.106e-01 
*LOADS
*RC lt_40:B_31 3.783e-03
*END

*R_NET Aport\[30\] 2.211e-01
*DRIVER Aport\[30\]
*CELL INVX1
*C2_R1_C1 1.106e-01 1.710e-02 1.106e-01 
*LOADS
*RC lt_40:B_30 3.783e-03
*END

*R_NET Aport\[29\] 2.211e-01
*DRIVER Aport\[29\]
*CELL INVX1